output/Combined/csv/Currents.csv
Element, I1_1, Ang1_1, I1_2, Ang1_2, I1_3, Ang1_3, I1_4, Ang1_4, Iresid1, AngResid1, I2_1, Ang2_1, I2_2, Ang2_2, I2_3, Ang2_3, I2_4, Ang2_4, Iresid2, AngResid2
Vsource.SOURCE,    122.275,   153.76,    122.275,    33.76,    122.275,   -86.24,          0,     0.00, 1.72892E-9,    53.90,    122.275,   -26.24,    122.275,  -146.24,    122.275,    93.76,          0,     0.00, 1.72892E-9,  -126.10
Vsource.COLONYSS,    222.548,   151.96,    222.548,    31.96,    222.548,   -88.04,          0,     0.00, 5.10903E-8,  -139.85,    222.548,   -28.04,    222.548,  -148.04,    222.548,    91.96,          0,     0.00, 5.10903E-8,    40.15
Vsource.CONTROLROOMSS,    97.8168,   160.21,    97.8168,    40.21,    97.8168,   -79.79,          0,     0.00, 2.26853E-9,  -171.60,    97.8168,   -19.79,    97.8168,  -139.79,    97.8168,   100.21,          0,     0.00, 2.26853E-9,     8.40
Line.M01,    85.7707,   -26.26,    85.7707,  -146.26,    85.7707,    93.74,          0,     0.00, 1.54385E-9,  -131.26,    85.7771,   153.73,    85.7771,    33.73,    85.7771,   -86.27,          0,     0.00, 1.54067E-9,    48.67
Line.M02,    36.5047,   -26.20,    36.5047,  -146.20,    36.5047,    93.80,          0,     0.00, 2.97631E-10,   -81.92,    36.5083,   153.79,    36.5083,    33.79,    36.5083,   -86.21,          0,     0.00, 2.98234E-10,    98.86
Line.LU1,    37.2493,   -26.28,    37.2493,  -146.28,    37.2493,    93.72,          0,     0.00, 5.31557E-10,   -92.26,     37.251,   153.72,     37.251,    33.72,     37.251,   -86.28,          0,     0.00, 5.25068E-10,    86.13
Line.LU2,    34.3676,   -26.28,    34.3676,  -146.28,    34.3676,    93.72,          0,     0.00, 5.38803E-10,   -95.18,    34.3705,   153.71,    34.3705,    33.71,    34.3705,   -86.29,          0,     0.00, 5.33127E-10,    85.06
Line.LU3,    34.0532,   -26.31,    34.0532,  -146.31,    34.0532,    93.69,          0,     0.00, 5.34981E-10,   -88.44,    34.0543,   153.69,    34.0543,    33.69,    34.0543,   -86.31,          0,     0.00, 5.3486E-10,    90.97
Line.LU4,    33.7804,   -26.32,    33.7804,  -146.32,    33.7804,    93.68,          0,     0.00, 5.0755E-10,   -98.45,    33.7816,   153.68,    33.7816,    33.68,    33.7816,   -86.32,          0,     0.00, 5.17837E-10,    82.13
Line.LU5,    30.8947,   -26.32,    30.8947,  -146.32,    30.8947,    93.68,          0,     0.00, 5.31746E-10,   -98.66,     30.897,   153.67,     30.897,    33.67,     30.897,   -86.33,          0,     0.00, 5.22481E-10,    81.39
Line.LU6,    27.7669,   -26.32,    27.7669,  -146.32,    27.7669,    93.68,          0,     0.00, 5.34908E-10,   -99.54,    27.7704,   153.67,    27.7704,    33.67,    27.7704,   -86.33,          0,     0.00, 5.41694E-10,    79.70
Line.LU7,    25.1216,   -26.33,    25.1216,  -146.33,    25.1216,    93.67,          0,     0.00, 5.32876E-10,  -101.57,    25.1245,   153.65,    25.1245,    33.65,    25.1245,   -86.35,          0,     0.00, 5.62122E-10,    78.66
Line.LU8,    22.7159,   -26.35,    22.7159,  -146.35,    22.7159,    93.65,          0,     0.00, 5.46119E-10,  -102.60,    22.7188,   153.63,    22.7188,    33.63,    22.7188,   -86.37,          0,     0.00, 5.51055E-10,    77.71
Line.LU9,    18.8554,   -26.32,    18.8554,  -146.32,    18.8554,    93.68,          0,     0.00, 5.51502E-10,  -103.35,    18.8588,   153.66,    18.8588,    33.66,    18.8588,   -86.34,          0,     0.00, 5.55447E-10,    78.29
Line.LU10,    14.9937,   -26.28,    14.9937,  -146.28,    14.9937,    93.72,          0,     0.00, 1.56729E-9,   -74.93,    14.9938,   153.72,    14.9938,    33.72,    14.9938,   -86.28,          0,     0.00, 7.00913E-10,    94.76
Line.LU11,     14.635,   -26.29,     14.635,  -146.29,     14.635,    93.71,          0,     0.00, 8.41951E-10,   142.15,    14.6367,   153.70,    14.6367,    33.70,    14.6367,   -86.30,          0,     0.00, 8.14912E-10,   -37.06
Line.LU12,    11.0143,   -26.22,    11.0143,  -146.22,    11.0143,    93.78,          0,     0.00, 8.36933E-10,   141.88,    11.0159,   153.76,    11.0159,    33.76,    11.0159,   -86.24,          0,     0.00, 8.40456E-10,   -36.06
Line.LU13,    7.14976,   -26.04,    7.14976,  -146.04,    7.14976,    93.96,          0,     0.00, 7.5684E-10,   142.03,    7.14987,   153.96,    7.14987,    33.96,    7.14987,   -86.04,          0,     0.00, 1.04541E-9,   -51.22
Line.LU14,    4.11942,   -26.18,    4.11942,  -146.18,    4.11942,    93.82,          0,     0.00, 3.09228E-11,   -28.07,     4.1202,   153.79,     4.1202,    33.79,     4.1202,   -86.21,          0,     0.00, 4.06738E-11,   116.57
Line.LU15,       2.65,   -26.18,       2.65,  -146.18,       2.65,    93.82,          0,     0.00, 1.23705E-11,   -36.03,    2.65344,   153.67,    2.65344,    33.67,    2.65344,   -86.33,          0,     0.00, 3.74994E-12,    75.96
Line.LU16,    3.03048,   -25.85,    3.03048,  -145.85,    3.03048,    94.15,          0,     0.00, 7.66311E-10,   144.27,    3.03205,   154.09,    3.03205,    34.09,    3.03205,   -85.91,          0,     0.00, 7.68949E-10,   -34.59
Line.LU17,   0.620267,   -24.42,   0.620267,  -144.42,   0.620267,    95.58,          0,     0.00, 7.66823E-10,   147.74,   0.623479,   154.93,   0.623479,    34.93,   0.623479,   -85.07,          0,     0.00, 7.62049E-10,   -33.46
Line.LU18,    3.24328,   153.10,    3.24328,    33.10,    3.24328,   -86.90,          0,     0.00, 7.68217E-10,   147.33,     3.2415,   -26.84,     3.2415,  -146.84,     3.2415,    93.16,          0,     0.00, 7.49451E-10,   -33.27
Line.LU19,    6.14412,   153.23,    6.14412,    33.23,    6.14412,   -86.77,          0,     0.00, 7.94013E-10,   152.73,    6.14324,   -26.75,    6.14324,  -146.75,    6.14324,    93.25,          0,     0.00, 7.28877E-10,   -26.69
Line.LU20,    14.3651,   153.58,    14.3651,    33.58,    14.3651,   -86.42,          0,     0.00, 1.01081E-9,   157.13,    14.3634,   -26.41,    14.3634,  -146.41,    14.3634,    93.59,          0,     0.00, 9.90383E-10,   -22.92
Line.LU21,    15.7279,   153.60,    15.7279,    33.60,    15.7279,   -86.40,          0,     0.00, 1.02072E-9,   160.21,    15.7267,   -26.39,    15.7267,  -146.39,    15.7267,    93.61,          0,     0.00, 1.02043E-9,   -21.76
Line.LU22,    16.8627,   153.66,    16.8627,    33.66,    16.8627,   -86.34,          0,     0.00, 8.23695E-10,   122.01,    16.8627,   -26.34,    16.8627,  -146.34,    16.8627,    93.66,          0,     0.00, 1.45519E-9,   -53.13
Line.LU23,    43.8001,   153.66,    43.8001,    33.66,    43.8001,   -86.34,          0,     0.00, 9.22292E-10,   -44.28,    43.7982,   -26.34,    43.7982,  -146.34,    43.7982,    93.66,          0,     0.00, 9.42156E-10,   135.04
Line.LU24,    46.6909,   153.66,    46.6909,    33.66,    46.6909,   -86.34,          0,     0.00, 1.13505E-9,    67.38,    46.6908,   -26.34,    46.6908,  -146.34,    46.6908,    93.66,          0,     0.00, 1.15868E-9,  -115.28
Line.LU25,    46.7035,   153.67,    46.7035,    33.67,    46.7035,   -86.33,          0,     0.00, 1.03611E-9,    37.15,    46.7032,   -26.33,    46.7032,  -146.33,    46.7032,    93.67,          0,     0.00, 1.13108E-9,  -146.41
Line.LU26,    48.1332,   153.69,    48.1332,    33.69,    48.1332,   -86.31,          0,     0.00, 1.00266E-9,    31.50,    48.1328,   -26.31,    48.1328,  -146.31,    48.1328,    93.69,          0,     0.00, 1.07714E-9,  -152.66
Line.LU27,    48.1456,   153.70,    48.1456,    33.70,    48.1456,   -86.30,          0,     0.00, 1.11425E-9,    35.53,    48.1443,   -26.30,    48.1443,  -146.30,    48.1443,    93.70,          0,     0.00, 1.08205E-9,  -143.96
Line.LU28,    48.1443,   153.70,    48.1443,    33.70,    48.1443,   -86.30,          0,     0.00, 1.18962E-9,    33.40,    48.1432,   -26.30,    48.1432,  -146.30,    48.1432,    93.70,          0,     0.00, 1.16995E-9,  -145.96
Line.LU29,    48.5187,   153.71,    48.5187,    33.71,    48.5187,   -86.29,          0,     0.00, 1.17076E-9,    30.95,    48.5163,   -26.28,    48.5163,  -146.28,    48.5163,    93.72,          0,     0.00, 1.16875E-9,  -148.78
Line.LU30,    48.5291,   153.73,    48.5291,    33.73,    48.5291,   -86.27,          0,     0.00, 1.18753E-9,    30.98,    48.5245,   -26.26,    48.5245,  -146.26,    48.5245,    93.74,          0,     0.00, 1.18551E-9,  -149.27
Line.LU31,    48.5284,   153.74,    48.5284,    33.74,    48.5284,   -86.26,          0,     0.00, 1.21101E-9,    31.11,    48.5278,   -26.26,    48.5278,  -146.26,    48.5278,    93.74,          0,     0.00, 1.18733E-9,  -149.43
Line.LU32,    26.9374,   -26.34,    26.9374,  -146.34,    26.9374,    93.66,          0,     0.00,  1.5134E-9,    67.38,    26.9374,   153.66,    26.9374,    33.66,    26.9374,   -86.34,          0,     0.00, 9.75738E-10,   -72.65
Line.LU33,    21.6387,   -26.33,    21.6387,  -146.33,    21.6387,    93.67,          0,     0.00, 1.7052E-10,   -33.69,    21.6392,   153.66,    21.6392,    33.66,    21.6392,   -86.34,          0,     0.00, 9.76172E-11,   153.43
Line.LU34,    17.7739,   -26.28,    17.7739,  -146.28,    17.7739,    93.72,          0,     0.00, 9.55662E-11,     2.18,    17.7757,   153.71,    17.7757,    33.71,    17.7757,   -86.29,          0,     0.00, 8.64786E-11,   177.59
Line.LU35,    12.8071,   -26.30,    12.8071,  -146.30,    12.8071,    93.70,          0,     0.00, 1.71603E-11,   122.01,    12.8078,   153.69,    12.8078,    33.69,    12.8078,   -86.31,          0,     0.00, 4.24647E-11,  -136.74
Line.LU36,    12.8089,   -26.32,    12.8089,  -146.32,    12.8089,    93.68,          0,     0.00, 9.20524E-11,   -60.40,    12.8094,   153.68,    12.8094,    33.68,    12.8094,   -86.32,          0,     0.00, 8.8833E-11,    79.38
Line.LU37,     10.156,   -26.32,     10.156,  -146.32,     10.156,    93.68,          0,     0.00, 4.60531E-11,     9.09,    10.1567,   153.67,    10.1567,    33.67,    10.1567,   -86.33,          0,     0.00, 9.09495E-12,   180.00
Line.LU38,    9.90211,   -26.42,    9.90211,  -146.42,    9.90211,    93.58,          0,     0.00, 4.38071E-11,    94.76,     9.9025,   153.57,     9.9025,    33.57,     9.9025,   -86.43,          0,     0.00, 1.90604E-10,   -13.24
Line.LU39,     9.5309,   -26.51,     9.5309,  -146.51,     9.5309,    93.49,          0,     0.00, 1.09155E-10,    23.57,    9.53149,   153.48,    9.53149,    33.48,    9.53149,   -86.52,          0,     0.00, 1.17223E-10,  -131.86
Line.LU40,    9.51875,   -26.56,    9.51875,  -146.56,    9.51875,    93.44,          0,     0.00, 1.09442E-10,   -15.42,    9.51944,   153.44,    9.51944,    33.44,    9.51944,   -86.56,          0,     0.00, 5.99991E-11,   165.96
Line.LU41,    1.79504,   -26.23,    1.79504,  -146.23,    1.79504,    93.77,          0,     0.00, 6.21658E-11,   -20.56,    1.79557,   153.73,    1.79557,    33.73,    1.79557,   -86.27,          0,     0.00, 6.35346E-11,  -113.63
Line.LU42,    1.09866,   153.58,    1.09866,    33.58,    1.09866,   -86.42,          0,     0.00, 2.35943E-11,  -152.45,    1.09625,   -26.17,    1.09625,  -146.17,    1.09625,    93.83,          0,     0.00, 3.58415E-11,    54.29
Line.LU43,    4.96342,   153.49,    4.96342,    33.49,    4.96342,   -86.51,          0,     0.00, 1.62695E-11,   116.57,    4.96161,   -26.47,    4.96161,  -146.47,    4.96161,    93.53,          0,     0.00, 4.19651E-11,   -60.10
Line.LU44,    4.96161,   153.53,    4.96161,    33.53,    4.96161,   -86.47,          0,     0.00, 9.83769E-12,   146.31,    4.95835,   -26.39,    4.95835,  -146.39,    4.95835,    93.61,          0,     0.00, 7.49989E-12,    14.04
Line.LU45,     4.9711,   153.68,     4.9711,    33.68,     4.9711,   -86.32,          0,     0.00, 2.02605E-11,   134.09,     4.9686,   -26.26,     4.9686,  -146.26,     4.9686,    93.74,          0,     0.00, 2.57605E-11,   -20.67
Line.LU46,    8.22205,   -26.18,    8.22205,  -146.18,    8.22205,    93.82,          0,     0.00, 2.69855E-10,    -7.75,    8.22382,   153.80,    8.22382,    33.80,    8.22382,   -86.20,          0,     0.00, 2.93962E-10,   175.03
Line.LU47,    5.32918,   -26.12,    5.32918,  -146.12,    5.32918,    93.88,          0,     0.00, 2.26024E-10,    -3.69,    5.32963,   153.87,    5.32963,    33.87,    5.32963,   -86.13,          0,     0.00, 2.4781E-10,  -176.63
Line.LU48,    5.32963,   -26.13,    5.32963,  -146.13,    5.32963,    93.87,          0,     0.00, 2.79367E-10,    -8.24,    5.33076,   153.85,    5.33076,    33.85,    5.33076,   -86.15,          0,     0.00, 3.09554E-10,   173.25
Line.LU49,    2.91889,   -26.05,    2.91889,  -146.05,    2.91889,    93.95,          0,     0.00, 2.75359E-10,   -43.39,    2.91928,   153.93,    2.91928,    33.93,    2.91928,   -86.07,          0,     0.00, 2.76319E-10,   170.91
Line.LU50,    2.89449,   -26.34,    2.89449,  -146.34,    2.89449,    93.66,          0,     0.00, 3.79925E-11,   -11.04,    2.89566,   153.61,    2.89566,    33.61,    2.89566,   -86.39,          0,     0.00, 5.50526E-11,   172.41
Line.LU51,   0.028485,     3.33,   0.028485,  -116.67,   0.028485,   123.33,          0,     0.00, 1.64636E-10,   -45.00,  0.0284369,  -179.27,  0.0284369,    60.73,  0.0284369,   -59.27,          0,     0.00, 2.48876E-10,   127.87
Line.LU52,  0.0142233,     1.61,  0.0142233,  -118.39,  0.0142233,   121.61,          0,     0.00, 2.13992E-10,  -125.31,  0.0142169,   179.85,  0.0142169,    59.85,  0.0142169,   -60.15,          0,     0.00, 1.80731E-10,   -40.10
Line.LU54,    7.05417,   -26.17,    7.05417,  -146.17,    7.05417,    93.83,          0,     0.00, 3.50628E-11,     2.97,    7.05741,   153.77,    7.05741,    33.77,    7.05741,   -86.23,          0,     0.00, 3.13611E-11,   163.14
Line.LU55,    6.46526,   -26.30,    6.46526,  -146.30,    6.46526,    93.70,          0,     0.00, 3.24914E-11,     6.43,    6.46784,   153.65,    6.46784,    33.65,    6.46784,   -86.35,          0,     0.00, 2.43746E-11,  -171.42
Line.LU56,    3.35338,   -26.34,    3.35338,  -146.34,    3.35338,    93.66,          0,     0.00, 1.20057E-11,  -114.62,    3.35631,   153.56,    3.35631,    33.56,    3.35631,   -86.44,          0,     0.00, 1.99468E-11,   133.15
Line.LU57,    27.0595,   -26.21,    27.0595,  -146.21,    27.0595,    93.79,          0,     0.00, 2.76702E-10,   -87.74,    27.0631,   153.77,    27.0631,    33.77,    27.0631,   -86.23,          0,     0.00, 2.80657E-10,    93.53
Line.LU58,    27.0502,   -26.24,    27.0502,  -146.24,    27.0502,    93.76,          0,     0.00, 2.75763E-10,   -84.89,    27.0531,   153.75,    27.0531,    33.75,    27.0531,   -86.25,          0,     0.00, 2.8259E-10,    93.88
Line.LU59,    26.4076,   -26.27,    26.4076,  -146.27,    26.4076,    93.73,          0,     0.00, 2.91856E-10,   -94.29,    26.4084,   153.72,    26.4084,    33.72,    26.4084,   -86.28,          0,     0.00, 2.70412E-10,    84.60
Line.LU60,     23.771,   -26.28,     23.771,  -146.28,     23.771,    93.72,          0,     0.00, 7.97871E-11,   -65.77,    23.7713,   153.72,    23.7713,    33.72,    23.7713,   -86.28,          0,     0.00, 1.74774E-10,    92.39
Line.LU61,     21.374,   -26.28,     21.374,  -146.28,     21.374,    93.72,          0,     0.00, 2.72874E-10,   -80.60,    21.3752,   153.71,    21.3752,    33.71,    21.3752,   -86.29,          0,     0.00, 3.14322E-10,   106.13
Line.LU62,    17.5314,   -26.23,    17.5314,  -146.23,    17.5314,    93.77,          0,     0.00, 3.49322E-10,   -88.81,    17.5317,   153.77,    17.5317,    33.77,    17.5317,   -86.23,          0,     0.00, 4.10625E-10,    82.87
Line.LU63,    15.1345,   -26.24,    15.1345,  -146.24,    15.1345,    93.76,          0,     0.00, 1.75155E-10,   -85.53,    15.1359,   153.75,    15.1359,    33.75,    15.1359,   -86.25,          0,     0.00, 1.75871E-10,    96.83
Line.LU64,    3.37289,   -26.31,    3.37289,  -146.31,    3.37289,    93.69,          0,     0.00, 8.73872E-11,   -87.61,    3.37337,   153.68,    3.37337,    33.68,    3.37337,   -86.32,          0,     0.00, 7.06368E-11,   124.51
Line.LU65,  0.0143558,     5.08,  0.0143558,  -114.92,  0.0143558,   125.08,          0,     0.00, 1.2893E-10,    16.39,  0.0142979,   179.89,  0.0142979,    59.89,  0.0142979,   -60.11,          0,     0.00, 9.35321E-11,  -166.50
Line.LU66,    11.7631,   -26.24,    11.7631,  -146.24,    11.7631,    93.76,          0,     0.00, 6.19525E-11,   -93.37,     11.765,   153.74,     11.765,    33.74,     11.765,   -86.26,          0,     0.00, 6.82121E-11,   106.26
Line.LU67,    3.36069,   -26.42,    3.36069,  -146.42,    3.36069,    93.58,          0,     0.00, 4.45931E-11,   -78.23,    3.36168,   153.55,    3.36168,    33.55,    3.36168,   -86.45,          0,     0.00, 7.24177E-11,    64.72
Line.LU68,    5.76576,   -26.15,    5.76576,  -146.15,    5.76576,    93.85,          0,     0.00, 1.18234E-11,   112.62,    5.76728,   153.82,    5.76728,    33.82,    5.76728,   -86.18,          0,     0.00, 1.66961E-11,   119.36
Line.LU69,  0.0158913,    25.83,  0.0158913,   -94.17,  0.0158913,   145.83,          0,     0.00, 9.09495E-12,   -36.87,   0.014295,   179.89,   0.014295,    59.89,   0.014295,   -60.11,          0,     0.00, 3.66629E-12,    97.13
Line.LU70,    2.87787,   -26.27,    2.87787,  -146.27,    2.87787,    93.73,          0,     0.00, 3.11361E-11,    -6.71,    2.87903,   153.68,    2.87903,    33.68,    2.87903,   -86.32,          0,     0.00, 5.32501E-11,   172.15
Line.LU73, 0.00237998,    89.89, 0.00237998,   -30.11, 0.00237998,  -150.11,          0,     0.00, 2.82383E-11,  -165.07, 2.03369E-11,  -169.70, 1.15043E-11,    71.57, 2.91038E-11,   -90.00,          0,     0.00, 2.72848E-11,  -126.87
Transformer.RAM_MANDIR,    2.88341,   -26.36,    2.88341,  -146.36,    2.88341,    93.64,          0,     0.00, 5.68434E-14,   -90.00,    76.0895,   123.52,    76.0895,     3.52,    76.0895,  -116.48, 1.50427E-8,   -57.08, 4.54747E-13,   180.00
Transformer.DEMPO_DTC,   0.317515,   -24.41,   0.317515,  -144.41,   0.317515,    95.59,          0,     0.00, 2.84217E-14,   180.00,    8.07298,   124.49,    8.07298,     4.49,    8.07298,  -115.51, 1.58568E-9,   -55.64, 1.38306E-12,  -170.54
Transformer.RB_ENGG,   0.273937,   -25.13,   0.273937,  -145.13,   0.273937,    94.87,          0,     0.00, 1.42109E-14,   -90.00,    6.92029,   123.55,    6.92029,     3.55,    6.92029,  -116.45, 1.35907E-9,   -56.58, 8.19807E-13,   146.31
Transformer.UNDIR_BAKALE,    2.88694,   -26.37,    2.88694,  -146.37,    2.88694,    93.63,          0,     0.00, 2.84217E-14,   180.00,    76.1834,   123.51,    76.1834,     3.51,    76.1834,  -116.49,  1.5081E-8,   -57.09, 9.37486E-13,   -14.04
Transformer.MULEBHAT,    3.13007,   -26.43,    3.13007,  -146.43,    3.13007,    93.57,          0,     0.00, 5.1238E-14,  -146.31,    82.6283,   123.46,    82.6283,     3.46,    82.6283,  -116.54,  1.6375E-8,   -57.19, 1.13687E-12,   -53.13
Transformer.MARUTI_TEMPLE,     2.6487,   -26.32,     2.6487,  -146.32,     2.6487,    93.68,          0,     0.00, 4.26326E-14,   180.00,     69.869,   123.55,     69.869,     3.55,     69.869,  -116.45, 1.38367E-8,   -57.01, 1.38306E-12,  -170.54
Transformer.CHIKALI,    2.40867,   -26.26,    2.40867,  -146.26,    2.40867,    93.74,          0,     0.00, 3.17764E-14,   -63.43,    63.5066,   123.59,    63.5066,     3.59,    63.5066,  -116.41, 1.25734E-8,   -56.92, 1.94268E-12,    20.56
Transformer.ADPAI,    3.86339,   -26.60,    3.86339,  -146.60,    3.86339,    93.40,          0,     0.00, 2.84217E-14,     0.00,    102.067,   123.31,    102.067,     3.31,    102.067,  -116.69, 2.03016E-8,   -57.49, 1.38306E-12,   170.54
Transformer.DURBHAT,    3.86509,   -26.60,    3.86509,  -146.60,    3.86509,    93.40,          0,     0.00, 5.85929E-14,   -14.04,    102.112,   123.31,    102.112,     3.31,    102.112,  -116.69, 2.03205E-8,   -57.49, 1.73163E-12,   156.80
Transformer.SEWERAGE,   0.358776,   -25.73,   0.358776,  -145.73,   0.358776,    94.27,          0,     0.00, 4.01944E-14,   -45.00,    9.17125,   123.26,    9.17125,     3.26,    9.17125,  -116.74, 1.80902E-9,   -56.87, 1.73163E-12,  -156.80
Transformer.KASWADA,    3.62251,   -26.55,    3.62251,  -146.55,    3.62251,    93.45,          0,     0.00, 2.00972E-14,  -135.00,    95.6822,   123.35,    95.6822,     3.35,    95.6822,  -116.65, 1.90316E-8,   -57.40, 8.19807E-13,   -33.69
Transformer.LONDIYAR_WADEM,    3.86628,   -26.61,    3.86628,  -146.61,    3.86628,    93.39,          0,     0.00, 4.26326E-14,   180.00,    102.144,   123.30,    102.144,     3.30,    102.144,  -116.70, 2.03335E-8,   -57.49, 3.21555E-13,  -135.00
Transformer.NEW_TALAULIM,     1.4702,   -26.25,     1.4702,  -146.25,     1.4702,    93.75,          0,     0.00, 2.00972E-14,  -135.00,    38.6317,   123.51,    38.6317,     3.51,    38.6317,  -116.49, 7.63863E-9,   -56.82, 1.60777E-12,     8.13
Transformer.WADI,    2.65344,   -26.33,    2.65344,  -146.33,    2.65344,    93.67,          0,     0.00, 5.85929E-14,  -104.04,    69.9951,   123.53,    69.9951,     3.53,    69.9951,  -116.47, 1.38855E-8,   -57.02, 6.82121E-13,   -90.00
Transformer.TALAULIM,    2.41205,   -26.29,    2.41205,  -146.29,    2.41205,    93.71,          0,     0.00, 1.42109E-14,   180.00,    63.5966,   123.56,    63.5966,     3.56,    63.5966,  -116.44, 1.26092E-8,   -56.97, 1.13687E-12,     0.00
Transformer.MAHALAKSHMI_NAGAR,    3.86649,   -26.61,    3.86649,  -146.61,    3.86649,    93.39,          0,     0.00, 3.17764E-14,  -116.57,     102.15,   123.30,     102.15,     3.30,     102.15,  -116.70, 2.03393E-8,   -57.49, 1.3258E-12,   -59.04
Transformer.PAUNWADA,    2.90262,   -26.69,    2.90262,  -146.69,    2.90262,    93.31,          0,     0.00, 2.92964E-14,    75.96,     76.601,   123.19,     76.601,     3.19,     76.601,  -116.81, 1.52504E-8,   -57.70, 9.64665E-13,   135.00
Transformer.KAVLE_MATH,    1.36448,   -26.34,    1.36448,  -146.34,    1.36448,    93.66,          0,     0.00, 2.84217E-14,   180.00,    35.8295,   123.40,    35.8295,     3.40,    35.8295,  -116.60, 7.08133E-9,   -56.92, 5.08423E-13,  -116.57
Transformer.SHANTADURGA_OLD,    1.13614,   -25.60,    1.13614,  -145.60,    1.13614,    94.40,          0,     0.00, 4.49387E-14,   -18.43,     29.775,   124.09,     29.775,     4.09,     29.775,  -115.91, 5.87974E-9,   -56.16, 6.82121E-13,     0.00
Transformer.SANATAN_1,    2.89262,   -26.38,    2.89262,  -146.38,    2.89262,    93.62,          0,     0.00, 4.26326E-14,     0.00,    76.3347,   123.50,    76.3347,     3.50,    76.3347,  -116.50, 1.51424E-8,   -57.11, 5.08423E-13,    26.57
Transformer.SANATAN_2,  0.0142317,    -0.14,  0.0142317,  -120.14,  0.0142317,   119.86,          0,     0.00, 6.35529E-14,   116.57,          0,     0.00,          0,     0.00, 1.81899E-12,   180.00, 1.01685E-12,   -26.57, 1.01685E-12,  -153.43
Transformer.RAMNATHI_DEVASTHAN,    1.43009,   -25.69,    1.43009,  -145.69,    1.43009,    94.31,          0,     0.00, 4.01944E-14,    45.00,    37.5664,   124.06,    37.5664,     4.06,    37.5664,  -115.94, 7.41951E-9,   -56.24, 4.54747E-13,   -90.00
Transformer.RAMNATHI,  0.0142351,    -0.14,  0.0142351,  -120.14,  0.0142351,   119.86,          0,     0.00, 2.84217E-14,   180.00, 6.82121E-13,   180.00, 2.03369E-12,   116.57, 9.09495E-13,     0.00, 1.01685E-12,   -26.57, 1.38306E-12,    80.54
Transformer.RPRS_SCHOOL,   0.375613,   -25.08,   0.375613,  -145.08,   0.375613,    94.92,          0,     0.00, 2.84217E-14,   -90.00,    9.61506,   123.98,    9.61506,     3.98,    9.61506,  -116.02, 1.89055E-9,   -56.15, 8.19807E-13,    56.31
Transformer.TOLULEM,   0.014258,    -0.13,   0.014258,  -120.13,   0.014258,   119.87,          0,     0.00,          0,     0.00, 4.54747E-13,   180.00, 1.63961E-12,  -146.31, 1.01685E-12,    26.57, 9.37486E-13,    14.04, 2.27374E-13,   -90.00
Transformer.KHARWADA, 0.00435328,    -0.14, 0.00435328,  -120.14, 0.00435328,   119.86,          0,     0.00, 7.10543E-15,   -90.00, 1.13687E-13,   180.00, 2.27374E-13,   -90.00, 2.27374E-13,   -90.00, 5.68434E-13,    36.87, 3.59509E-13,   -18.43
Transformer.SHANTADURGA_NEW,    5.29874,   -26.37,    5.29874,  -146.37,    5.29874,    93.63,          0,     0.00, 8.03887E-14,    45.00,    139.852,   123.51,    139.852,     3.51,    139.852,  -116.49, 2.77213E-8,   -57.05, 1.13687E-12,    36.87
Transformer.GALSHIRE,    3.86534,   -26.60,    3.86534,  -146.60,    3.86534,    93.40,          0,     0.00, 2.00972E-14,  -135.00,    102.119,   123.31,    102.119,     3.31,    102.119,  -116.69, 2.03287E-8,   -57.48, 1.13687E-12,   143.13
Transformer.RAJENDRA_TALAK,   0.255112,   -22.59,   0.255112,  -142.59,   0.255112,    97.41,          0,     0.00, 5.68434E-14,     0.00,    5.86518,   123.74,    5.86518,     3.74,    5.86518,  -116.26,  1.1558E-9,   -56.36, 4.47874E-12,    66.04
Transformer.RITESH_DEVELOPERS,   0.371873,   -24.29,   0.371873,  -144.29,   0.371873,    95.71,          0,     0.00, 2.84217E-14,   180.00,    9.25307,   124.03,    9.25307,     4.03,    9.25307,  -115.97, 1.82239E-9,   -56.02, 2.23937E-12,    66.04
Transformer.VENKATESH_LEELA,  0.0142162,    -0.15,  0.0142162,  -120.15,  0.0142162,   119.85,          0,     0.00, 3.17764E-14,  -153.43, 9.37486E-13,  -104.04, 1.28622E-12,   135.00, 1.87497E-12,   -14.04, 1.87497E-12,  -165.96, 1.4559E-12,  -141.34
Transformer.PERIGOL,    7.72443,   -26.64,    7.72443,  -146.64,    7.72443,    93.36,          0,     0.00,          0,     0.00,     204.15,   123.28,     204.15,     3.28,     204.15,  -116.72, 4.06218E-8,   -57.54, 1.13687E-12,    90.00
Transformer.MANMOHAN_SINGH,    2.89423,   -26.33,    2.89423,  -146.33,    2.89423,    93.67,          0,     0.00, 4.49387E-14,  -108.43,    76.3777,   123.55,    76.3777,     3.55,    76.3777,  -116.45, 1.51604E-8,   -56.99, 3.21555E-13,   135.00
Transformer.DHUMRE,    3.86719,   -26.61,    3.86719,  -146.61,    3.86719,    93.39,          0,     0.00, 4.01944E-14,  -135.00,    102.168,   123.30,    102.168,     3.30,    102.168,  -116.70, 2.03479E-8,   -57.49, 7.19019E-13,    18.43
Transformer.SHASHIKALA_PAI,  0.0142181,    -0.15,  0.0142181,  -120.15,  0.0142181,   119.85,          0,     0.00, 4.01944E-14,  -135.00, 1.01685E-12,  -116.57, 9.09495E-13,   180.00, 9.37486E-13,    14.04, 1.13687E-12,    90.00, 6.4311E-13,   135.00
Transformer.KAPILESHWARI,    2.89466,   -26.36,    2.89466,  -146.36,    2.89466,    93.64,          0,     0.00, 1.42109E-14,     0.00,    76.3891,   123.52,    76.3891,     3.52,    76.3891,  -116.48, 1.51639E-8,   -57.05, 1.15938E-12,    78.69
Transformer.MATRUCHAYA,    2.41188,   -26.27,    2.41188,  -146.27,    2.41188,    93.73,          0,     0.00, 2.00972E-14,    45.00,    63.5921,   123.58,    63.5921,     3.58,    63.5921,  -116.42, 1.26103E-8,   -56.92, 1.01685E-12,   -26.57
Transformer.VAMNESHWAR,    2.89566,   -26.39,    2.89566,  -146.39,    2.89566,    93.61,          0,     0.00, 3.17764E-14,    26.57,    76.4157,   123.49,    76.4157,     3.49,    76.4157,  -116.51, 1.51743E-8,   -57.11, 1.95594E-12,  -125.54
Transformer.GOLDEN_PROPERTIES,  0.0142169,    -0.15,  0.0142169,  -120.15,  0.0142169,   119.85,          0,     0.00, 2.00972E-14,   -45.00, 9.09495E-13,    90.00, 1.28622E-12,  -135.00, 2.27374E-13,   -90.00, 1.28622E-12,   -45.00, 1.13687E-12,   -90.00
Transformer.RITESH,  0.0142169,    -0.15,  0.0142169,  -120.15,  0.0142169,   119.85,          0,     0.00, 2.84217E-14,     0.00,          0,     0.00, 9.09495E-13,     0.00, 9.37486E-13,   165.96, 9.09495E-13,     0.00, 9.37486E-13,    14.04
Transformer.T_SNEH_MANDIR,    2.65343,   -26.33,    2.65343,  -146.33,    2.65343,    93.67,          0,     0.00, 2.00972E-14,   -45.00,    69.9948,   123.53,    69.9948,     3.53,    69.9948,  -116.47, 1.38907E-8,   -57.02, 3.21555E-13,    45.00
Transformer.T_RAIGUINIM,    2.87903,   -26.32,    2.87903,  -146.32,    2.87903,    93.68,          0,     0.00, 2.84217E-14,    90.00,    75.9729,   123.56,    75.9729,     3.56,    75.9729,  -116.44, 1.49958E-8,   -57.03, 1.36424E-12,   180.00
Transformer.T_BANDORAPANCHAYAT,    2.87965,   -26.35,    2.87965,  -146.35,    2.87965,    93.65,          0,     0.00, 4.01944E-14,  -135.00,    75.9894,   123.53,    75.9894,     3.53,    75.9894,  -116.47, 1.50027E-8,   -57.08, 7.19019E-13,  -161.57
Transformer.T_KASHIMATHGROUND,   0.014295,    -0.11,   0.014295,  -120.11,   0.014295,   119.89,          0,     0.00,          0,     0.00, 4.54747E-13,   180.00, 9.09495E-13,     0.00, 9.37486E-13,    14.04, 1.01685E-12,   153.43, 8.19807E-13,    56.31
Transformer.T_NAGESHITEMPLE,    2.63854,   -26.27,    2.63854,  -146.27,    2.63854,    93.73,          0,     0.00, 4.01944E-14,   135.00,    69.5983,   123.59,    69.5983,     3.59,    69.5983,  -116.41, 1.37307E-8,   -56.97, 1.83315E-12,   -29.74
Transformer.T_DHONSHI,    3.36168,   -26.45,    3.36168,  -146.45,    3.36168,    93.55,          0,     0.00, 3.17764E-14,   -63.43,    88.7667,   123.44,    88.7667,     3.44,    88.7667,  -116.56, 1.75477E-8,   -57.27, 3.21555E-13,  -135.00
Transformer.T_AGRASHALA,    2.39724,   -26.20,    2.39724,  -146.20,    2.39724,    93.80,          0,     0.00, 4.01944E-14,   -45.00,    63.2019,   123.66,    63.2019,     3.66,    63.2019,  -116.34,  1.2453E-8,   -56.84, 1.36424E-12,     0.00
Transformer.T_HINDUJAN,    3.36112,   -26.45,    3.36112,  -146.45,    3.36112,    93.55,          0,     0.00, 5.1238E-14,    56.31,    88.7517,   123.44,    88.7517,     3.44,    88.7517,  -116.56, 1.75433E-8,   -57.27, 9.09495E-13,     0.00
Transformer.T_VAGDOR,  0.0142979,    -0.11,  0.0142979,  -120.11,  0.0142979,   119.89,          0,     0.00, 7.24614E-14,   -11.31,          0,     0.00,          0,     0.00,          0,     0.00,          0,     0.00,          0,     0.00
Transformer.T_MAHALAXMI,    3.84384,   -26.56,    3.84384,  -146.56,    3.84384,    93.44,          0,     0.00,          0,     0.00,    101.547,   123.35,    101.547,     3.35,    101.547,  -116.65, 2.00982E-8,   -57.45, 1.13687E-12,   -36.87
Transformer.T_PEARL,     2.3973,   -26.22,     2.3973,  -146.22,     2.3973,    93.78,          0,     0.00, 1.42109E-14,     0.00,    63.2037,   123.63,    63.2037,     3.63,    63.2037,  -116.37, 1.24538E-8,   -56.89, 9.64665E-13,    45.00
Transformer.T_KUNAL,    2.63735,   -26.28,    2.63735,  -146.28,    2.63735,    93.72,          0,     0.00, 3.17764E-14,   116.57,    69.5666,   123.58,    69.5666,     3.58,    69.5666,  -116.42, 1.37154E-8,   -56.99, 1.94268E-12,  -159.44
Transformer.T_SHAMRAO,   0.645605,   -25.48,   0.645605,  -145.48,   0.645605,    94.52,          0,     0.00, 4.49387E-14,   -18.43,    16.7709,   123.97,    16.7709,     3.97,    16.7709,  -116.03, 3.28825E-9,   -56.22, 2.27374E-13,    90.00
Transformer.T_MOGRU,  0.0143135,    -0.10,  0.0143135,  -120.10,  0.0143135,   119.90,          0,     0.00, 3.17764E-14,   -63.43, 1.01685E-12,  -116.57,          0,     0.00, 9.09495E-13,     0.00, 9.09495E-13,    90.00, 4.54747E-13,     0.00
Transformer.T_KONARGAUNEM,    2.39465,   -26.24,    2.39465,  -146.24,    2.39465,    93.76,          0,     0.00, 2.00972E-14,    45.00,     63.133,   123.61,     63.133,     3.61,     63.133,  -116.39, 1.24266E-8,   -56.93, 1.01685E-12,    26.57
Transformer.T_MGSCHOOL,   0.592217,   -25.41,   0.592217,  -145.41,   0.592217,    94.59,          0,     0.00, 1.42109E-14,   -90.00,    15.3553,   123.98,    15.3553,     3.98,    15.3553,  -116.02, 3.00832E-9,   -56.18, 1.01685E-12,   -63.43
Transformer.T_CHAFERAN,    3.11446,   -26.36,    3.11446,  -146.36,    3.11446,    93.64,          0,     0.00, 2.00972E-14,   135.00,     82.213,   123.53,     82.213,     3.53,     82.213,  -116.47, 1.62118E-8,   -57.09, 1.63961E-12,  -146.31
Transformer.T_SHIGUMOMAND,    3.35631,   -26.44,    3.35631,  -146.44,    3.35631,    93.56,          0,     0.00, 3.17764E-14,    26.57,    88.6237,   123.46,    88.6237,     3.46,    88.6237,  -116.54, 1.74937E-8,   -57.24, 1.01685E-12,   -26.57
Line.S01,    51.9385,   -19.34,    51.9385,  -139.34,    51.9385,   100.66,          0,     0.00, 1.68733E-9,   156.09,    52.0095,   160.43,    52.0095,    40.43,    52.0095,   -79.57,          0,     0.00,  1.6844E-9,   -23.69
Line.L1,    43.0381,   -20.70,    43.0381,  -140.70,    43.0381,    99.30,          0,     0.00, 1.34737E-9,   152.33,    43.1084,   159.04,    43.1084,    39.04,    43.1084,   -80.96,          0,     0.00, 1.36819E-9,   -29.29
Line.L2,    42.2507,   -20.85,    42.2507,  -140.85,    42.2507,    99.15,          0,     0.00, 1.27363E-9,   156.07,    42.3244,   158.88,    42.3244,    38.88,    42.3244,   -81.12,          0,     0.00, 1.22195E-9,   -23.51
Line.L3,    40.1596,   -20.79,    40.1596,  -140.79,    40.1596,    99.21,          0,     0.00, 3.68138E-10,   161.57,    40.1652,   159.18,    40.1652,    39.18,    40.1652,   -80.82,          0,     0.00, 8.23181E-10,   -45.00
Line.L4,    30.4848,   -22.12,    30.4848,  -142.12,    30.4848,    97.88,          0,     0.00, 7.43466E-10,   159.97,    30.5629,   157.52,    30.5629,    37.52,    30.5629,   -82.48,          0,     0.00, 6.71914E-10,   -17.65
Line.L5,    30.1862,   -22.44,    30.1862,  -142.44,    30.1862,    97.56,          0,     0.00, 8.19571E-10,   163.50,    30.2164,   157.42,    30.2164,    37.42,    30.2164,   -82.58,          0,     0.00, 7.18812E-10,   -21.37
Line.L6,    4.77599,   -22.82,    4.77599,  -142.82,    4.77599,    97.18,          0,     0.00, 1.66924E-10,   138.76,    4.80576,   156.33,    4.80576,    36.33,    4.80576,   -83.67,          0,     0.00, 1.56063E-10,   -40.75
Line.L7,    4.37545,   -23.43,    4.37545,  -143.43,    4.37545,    96.57,          0,     0.00, 1.52361E-10,   146.69,    4.39399,   156.01,    4.39399,    36.01,    4.39399,   -83.99,          0,     0.00, 1.42312E-10,   -35.11
Line.L8,    2.94769,   -22.83,    2.94769,  -142.83,    2.94769,    97.17,          0,     0.00, 1.39619E-10,   143.88,    3.10403,   150.96,    3.10403,    30.96,    3.10403,   -89.04,          0,     0.00, 6.75388E-11,   -43.91
Line.L9,    1.65744,   -31.02,    1.65744,  -151.02,    1.65744,    88.98,          0,     0.00, 7.18731E-11,   141.68,    1.76795,   143.37,    1.76795,    23.37,    1.76795,   -96.63,          0,     0.00, 3.06305E-11,   -49.21
Line.L10,    6.48166,   -25.28,    6.48166,  -145.28,    6.48166,    94.72,          0,     0.00, 2.05795E-11,   135.00,     6.4997,   154.38,     6.4997,    34.38,     6.4997,   -85.62,          0,     0.00, 3.25391E-11,   -63.43
Line.L11,    2.63344,   -23.60,    2.63344,  -143.60,    2.63344,    96.40,          0,     0.00, 3.2745E-11,   152.72,    2.70513,   153.07,    2.70513,    33.07,    2.70513,   -86.93,          0,     0.00, 3.27923E-12,   -56.31
Line.L12,    9.02057,   -14.13,    9.02057,  -134.13,    9.02057,   105.87,          0,     0.00, 6.71914E-10,  -175.03,    9.02339,   165.80,    9.02339,    45.80,    9.02339,   -74.20,          0,     0.00, 5.23869E-10,     0.00
Line.L13,     2.1095,   -23.69,     2.1095,  -143.69,     2.1095,    96.31,          0,     0.00, 1.89254E-11,   125.22,    2.15021,   153.90,    2.15021,    33.90,    2.15021,   -86.10,          0,     0.00, 9.79556E-12,  -158.20
Line.L14,    6.95148,   -11.33,    6.95148,  -131.33,    6.95148,   108.67,          0,     0.00,  2.241E-10,   160.31,     6.9707,   167.88,     6.9707,    47.88,     6.9707,   -72.12,          0,     0.00, 2.00188E-10,   -19.09
Line.L15,     3.3857,     4.90,     3.3857,  -115.10,     3.3857,   124.90,          0,     0.00, 2.22938E-10,   160.46,    3.37143,   178.52,    3.37143,    58.52,    3.37143,   -61.48,          0,     0.00, 1.51046E-10,   -14.20
Line.L16,   0.599292,   -25.31,   0.599292,  -145.31,   0.599292,    94.69,          0,     0.00, 9.45874E-11,   157.38,   0.602935,   153.95,   0.602935,    33.95,   0.602935,   -86.05,          0,     0.00, 1.34162E-10,   -49.40
Line.L17,     2.8336,     3.42,     2.8336,  -116.58,     2.8336,   123.42,          0,     0.00, 1.12687E-10,   163.83,    2.82716,   179.14,    2.82716,    59.14,    2.82716,   -60.86,          0,     0.00, 7.60615E-11,    -7.04
Line.L18,  0.0709511,    89.54,  0.0709511,   -30.46,  0.0709511,  -150.46,          0,     0.00, 1.3022E-11,   167.91,          0,     0.00, 3.63798E-12,   180.00, 9.09495E-12,   126.87,          0,     0.00, 1.16472E-11,   141.34
Line.L19,    16.9217,   -25.90,    16.9217,  -145.90,    16.9217,    94.10,          0,     0.00, 2.22125E-10,  -148.39,    16.9845,   153.66,    16.9845,    33.66,    16.9845,   -86.34,          0,     0.00, 1.89734E-10,    57.53
Line.L20,    12.6873,   -26.40,    12.6873,  -146.40,    12.6873,    93.60,          0,     0.00, 1.16415E-10,     0.00,    12.6938,   153.54,    12.6938,    33.54,    12.6938,   -86.46,          0,     0.00, 1.64636E-10,   135.00
Line.L21,    10.7594,   -26.36,    10.7594,  -146.36,    10.7594,    93.64,          0,     0.00, 3.04918E-11,   162.65,    10.7819,   153.39,    10.7819,    33.39,    10.7819,   -86.61,          0,     0.00, 1.82806E-11,    -5.71
Line.L22,    3.05013,   -25.41,    3.05013,  -145.41,    3.05013,    94.59,          0,     0.00, 1.27654E-11,  -175.91,    3.08145,   153.37,    3.08145,    33.37,    3.08145,   -86.63,          0,     0.00, 6.55846E-12,  -123.69
Line.L23,  0.0256297,    89.53,  0.0256297,   -30.47,  0.0256297,  -150.47,          0,     0.00, 2.62338E-11,   146.31,          0,     0.00,          0,     0.00, 1.45519E-11,   -90.00,          0,     0.00, 1.45519E-11,   -90.00
Line.L24,    3.45936,    -1.71,    3.45936,  -121.71,    3.45936,   118.29,          0,     0.00, 3.27383E-10,   150.73,    3.49064,   171.75,    3.49064,    51.75,    3.49064,   -68.25,          0,     0.00, 2.48004E-10,   -30.89
Line.L25,    2.09899,     4.42,    2.09899,  -115.58,    2.09899,   124.42,          0,     0.00, 2.34757E-10,   152.05,    2.09425,  -177.44,    2.09425,    62.56,    2.09425,   -57.44,          0,     0.00, 2.31033E-10,   -26.16
Line.L26,    1.52665,    15.07,    1.52665,  -104.93,    1.52665,   135.07,          0,     0.00, 2.25079E-10,   149.39,    1.48059,  -173.89,    1.48059,    66.11,    1.48059,   -53.89,          0,     0.00, 1.77006E-10,   -30.32
Line.L27,   0.802474,    60.57,   0.802474,   -59.43,   0.802474,  -179.43,          0,     0.00, 1.78803E-10,   150.44,    0.51563,  -139.36,    0.51563,   100.64,    0.51563,   -19.36,          0,     0.00, 1.07564E-10,   -29.93
Line.L28,   0.525419,    89.52,   0.525419,   -30.48,   0.525419,  -150.48,          0,     0.00, 1.04803E-10,   150.71, 9.09495E-13,     0.00, 1.01685E-12,  -116.57,          0,     0.00,          0,     0.00, 1.01685E-12,   -63.43
Line.L29,    33.2532,   -22.02,    33.2532,  -142.02,    33.2532,    97.98,          0,     0.00, 7.89165E-10,   157.22,    33.3701,   157.48,    33.3701,    37.48,    33.3701,   -82.52,          0,     0.00, 7.25592E-10,   -21.16
Line.L30,    6.95436,   -15.06,    6.95436,  -135.06,    6.95436,   104.94,          0,     0.00, 4.23996E-10,   148.15,    7.09928,   160.97,    7.09928,    40.97,    7.09928,   -79.03,          0,     0.00, 3.26338E-10,   -31.79
Line.L31,    7.09928,   -19.03,    7.09928,  -139.03,    7.09928,   100.97,          0,     0.00, 3.2288E-10,   146.49,    7.15897,   159.60,    7.15897,    39.60,    7.15897,   -80.40,          0,     0.00, 2.87676E-10,   -32.08
Line.L32,    10.0939,   -24.02,    10.0939,  -144.02,    10.0939,    95.98,          0,     0.00, 2.14856E-10,   151.70,    10.1396,   155.40,    10.1396,    35.40,    10.1396,   -84.60,          0,     0.00, 2.73406E-10,   -25.20
Line.L33,    4.76101,   158.91,    4.76101,    38.91,    4.76101,   -81.09,          0,     0.00, 1.09989E-11,     7.13,    4.69405,   -18.80,    4.69405,  -138.80,    4.69405,   101.20,          0,     0.00, 5.12636E-11,   154.80
Line.L34,     6.9944,   158.55,     6.9944,    38.55,     6.9944,   -81.45,          0,     0.00, 5.6537E-11,   -26.77,    6.75367,   -15.23,    6.75367,  -135.23,    6.75367,   104.77,          0,     0.00, 2.11163E-10,   152.00
Line.L36,    2.82854,    -2.30,    2.82854,  -122.30,    2.82854,   117.70,          0,     0.00, 6.19525E-11,   176.63,    2.83915,   174.25,    2.83915,    54.25,    2.83915,   -65.75,          0,     0.00, 3.82421E-11,    25.35
Line.L37,    1.25825,    98.64,    1.25825,   -21.36,    1.25825,  -141.36,          0,     0.00, 3.74553E-11,  -150.95,   0.747112,   -75.00,   0.747112,   165.00,   0.747112,    45.00,          0,     0.00, 8.78028E-11,   129.96
Transformer.T1,   0.861129,   -26.07,   0.861129,  -146.07,   0.861129,    93.93,          0,     0.00, 2.84217E-14,   180.00,    22.4848,   123.52,    22.4848,     3.52,    22.4848,  -116.48, 4.40627E-9,   -56.73, 9.09495E-13,     0.00
Transformer.T2,    2.17735,   -27.11,    2.17735,  -147.11,    2.17735,    92.89,          0,     0.00, 1.42109E-14,    90.00,    57.5535,   122.81,    57.5535,     2.81,    57.5535,  -117.19, 1.14099E-8,   -58.16, 3.59509E-13,   161.57
Transformer.T3,    2.89403,   -26.78,    2.89403,  -146.78,    2.89403,    93.22,          0,     0.00, 1.42109E-14,    90.00,    76.3714,   123.10,    76.3714,     3.10,    76.3714,  -116.90, 1.50648E-8,   -57.59, 1.83315E-12,    82.87
Transformer.T4,   0.377448,   -26.02,   0.377448,  -146.02,   0.377448,    93.98,          0,     0.00, 1.28095E-14,   -56.31,    9.84326,   123.53,    9.84326,     3.53,    9.84326,  -116.47,  1.9301E-9,   -56.72, 6.4311E-13,   135.00
Transformer.T5,    5.36792,   -26.19,    5.36792,  -146.19,    5.36792,    93.81,          0,     0.00, 4.68743E-13,   -14.04,    140.622,   123.49,    140.622,     3.49,    140.622,  -116.51, 2.75796E-8,   -56.81, 5.14488E-12,   -45.00
Transformer.T6,   0.430729,   -26.10,   0.430729,  -146.10,   0.430729,    93.90,          0,     0.00, 3.55271E-15,    90.00,    11.2557,   123.51,    11.2557,     3.51,    11.2557,  -116.49, 2.20837E-9,   -56.75, 1.13687E-13,    90.00
Transformer.T7,    1.44815,   -26.36,    1.44815,  -146.36,    1.44815,    93.64,          0,     0.00, 2.84217E-14,     0.00,    38.0456,   123.39,    38.0456,     3.39,    38.0456,  -116.61, 7.47648E-9,   -56.99, 6.4311E-13,    45.00
Transformer.T8,    1.44871,   -26.78,    1.44871,  -146.78,    1.44871,    93.22,          0,     0.00, 1.58882E-14,   153.43,    38.2395,   123.11,    38.2395,     3.11,    38.2395,  -116.89, 7.55403E-9,   -57.56, 5.08423E-13,  -153.43
Transformer.T9,    3.86901,   -27.00,    3.86901,  -147.00,    3.86901,    93.00,          0,     0.00, 4.01944E-14,  -135.00,    102.216,   122.91,    102.216,     2.91,    102.216,  -117.09, 2.02439E-8,   -57.96, 7.19019E-13,    18.43
Transformer.T10,    2.31555,   -26.82,    2.31555,  -146.82,    2.31555,    93.18,          0,     0.00, 2.5619E-14,    33.69,    61.1375,   123.07,    61.1375,     3.07,    61.1375,  -116.93, 1.20684E-8,   -57.64, 8.19807E-13,  -146.31
Transformer.T11,    4.29724,   -26.16,    4.29724,  -146.16,    4.29724,    93.84,          0,     0.00,          0,     0.00,      112.5,   123.50,      112.5,     3.50,      112.5,  -116.50, 2.20607E-8,   -56.79, 3.18323E-12,    90.00
Transformer.T12,    1.93449,   -27.01,    1.93449,  -147.01,    1.93449,    92.99,          0,     0.00, 1.00486E-14,   135.00,    51.1162,   122.90,    51.1162,     2.90,    51.1162,  -117.10, 1.01248E-8,   -57.98, 9.16573E-13,    97.13
Transformer.T13,    7.73271,   -27.08,    7.73271,  -147.08,    7.73271,    92.92,          0,     0.00, 2.84217E-14,   -90.00,    204.196,   122.81,    204.196,     2.81,    204.196,  -117.19, 4.03957E-8,   -58.16, 2.44889E-12,    68.20
Transformer.T14,    3.09284,   -27.06,    3.09284,  -147.06,    3.09284,    92.94,          0,     0.00, 1.58882E-14,  -116.57,     81.741,   122.86,     81.741,     2.86,     81.741,  -117.14,  1.6182E-8,   -58.05, 2.54211E-13,   -26.57
Transformer.T15,    1.51456,   -25.96,    1.51456,  -145.96,    1.51456,    94.04,          0,     0.00, 5.68434E-14,    90.00,    39.3699,   123.51,    39.3699,     3.51,    39.3699,  -116.49, 7.71739E-9,   -56.75, 1.28622E-12,   135.00
Transformer.T16,   0.688381,   -26.14,   0.688381,  -146.14,   0.688381,    93.86,          0,     0.00, 3.17764E-14,    26.57,    18.0061,   123.50,    18.0061,     3.50,    18.0061,  -116.50, 3.53314E-9,   -56.77, 4.68743E-13,   -14.04
Transformer.T17,    1.20613,   -26.67,    1.20613,  -146.67,    1.20613,    93.33,          0,     0.00, 7.10543E-15,    90.00,    31.8094,   123.20,    31.8094,     3.20,    31.8094,  -116.80, 6.27254E-9,   -57.39, 2.54211E-13,   -26.57
Transformer.T18,   0.430799,   -26.11,   0.430799,  -146.11,   0.430799,    93.89,          0,     0.00, 1.28095E-14,    56.31,    11.2575,   123.50,    11.2575,     3.50,    11.2575,  -116.50,  2.2097E-9,   -56.77, 1.13687E-13,    90.00
Transformer.T19,    3.37933,   -26.89,    3.37933,  -146.89,    3.37933,    93.11,          0,     0.00, 3.17764E-14,    26.57,    89.2353,   123.01,    89.2353,     3.01,    89.2353,  -116.99, 1.76303E-8,   -57.76, 5.08423E-13,   -26.57
Transformer.T20,   0.602935,   -26.05,   0.602935,  -146.05,   0.602935,    93.95,          0,     0.00, 1.42109E-14,    90.00,     15.741,   123.53,     15.741,     3.53,     15.741,  -116.47, 3.08422E-9,   -56.72, 1.13687E-13,    90.00
Transformer.T21,     3.8627,   -26.99,     3.8627,  -146.99,     3.8627,    93.01,          0,     0.00, 2.84217E-14,     0.00,    102.048,   122.92,    102.048,     2.92,    102.048,  -117.08, 2.01764E-8,   -57.96, 1.01685E-12,  -116.57
Transformer.T22,    2.15021,   -26.10,    2.15021,  -146.10,    2.15021,    93.90,          0,     0.00, 2.84217E-14,    90.00,    56.1922,   123.51,    56.1922,     3.51,    56.1922,  -116.49, 1.10103E-8,   -56.78, 1.28622E-12,  -135.00
Transformer.T23,    2.70513,   -26.93,    2.70513,  -146.93,    2.70513,    93.07,          0,     0.00, 2.92964E-14,   -14.04,    71.4642,   122.98,    71.4642,     2.98,    71.4642,  -117.02, 1.41358E-8,   -57.82, 6.9153E-13,     9.46
Line.F01,    109.867,   -26.78,    109.867,  -146.78,    109.867,    93.22,          0,     0.00, 2.30903E-8,    36.14,    109.869,   153.21,    109.869,    33.21,    109.869,   -86.79,          0,     0.00, 2.30884E-8,  -143.85
Line.F02,    106.973,   -26.79,    106.973,  -146.79,    106.973,    93.21,          0,     0.00, 2.25219E-8,    36.24,    106.974,   153.21,    106.974,    33.21,    106.974,   -86.79,          0,     0.00, 2.25455E-8,  -143.82
Line.F03,    103.093,   -26.78,    103.093,  -146.78,    103.093,    93.22,          0,     0.00, 2.17805E-8,    36.41,    103.094,   153.21,    103.094,    33.21,    103.094,   -86.79,          0,     0.00, 2.17908E-8,  -143.61
Line.F04,    99.2102,   -26.78,    99.2102,  -146.78,    99.2102,    93.22,          0,     0.00, 2.10328E-8,    36.62,    99.2113,   153.22,    99.2113,    33.22,    99.2113,   -86.78,          0,     0.00, 2.10088E-8,  -143.36
Line.F05,    95.3246,   -26.78,    95.3246,  -146.78,    95.3246,    93.22,          0,     0.00, 2.01719E-8,    38.56,    95.3247,   153.22,    95.3247,    33.22,    95.3247,   -86.78,          0,     0.00, 2.02598E-8,  -142.06
Line.F06,    95.3247,   -26.78,    95.3247,  -146.78,    95.3247,    93.22,          0,     0.00,  2.0329E-8,    36.86,     95.325,   153.22,     95.325,    33.22,     95.325,   -86.78,          0,     0.00, 2.03232E-8,  -143.08
Line.F07,    92.4218,   -26.78,    92.4218,  -146.78,    92.4218,    93.22,          0,     0.00, 1.97544E-8,    36.61,    92.4223,   153.22,    92.4223,    33.22,    92.4223,   -86.78,          0,     0.00, 1.97237E-8,  -143.25
Line.F08,    88.5331,   -26.77,    88.5331,  -146.77,    88.5331,    93.23,          0,     0.00,  1.8545E-8,    36.83,    88.5332,   153.23,    88.5332,    33.23,    88.5332,   -86.77,          0,     0.00, 1.86265E-8,  -143.13
Line.F09,    88.5332,   -26.77,    88.5332,  -146.77,    88.5332,    93.23,          0,     0.00, 1.89906E-8,    36.54,    88.5335,   153.23,    88.5335,    33.23,    88.5335,   -86.77,          0,     0.00, 1.91286E-8,  -143.87
Line.F10,    87.6805,   -26.77,    87.6805,  -146.77,    87.6805,    93.23,          0,     0.00, 1.87553E-8,    36.35,    87.6808,   153.23,    87.6808,    33.23,    87.6808,   -86.77,          0,     0.00, 1.87895E-8,  -143.28
Line.F11,    84.7753,   -26.77,    84.7753,  -146.77,    84.7753,    93.23,          0,     0.00, 1.80677E-8,    36.70,    84.7757,   153.23,    84.7757,    33.23,    84.7757,   -86.77,          0,     0.00, 1.81205E-8,  -143.54
Line.F12,     81.378,   -26.77,     81.378,  -146.77,     81.378,    93.23,          0,     0.00, 1.75333E-8,    36.22,    81.3781,   153.23,    81.3781,    33.23,    81.3781,   -86.77,          0,     0.00,  1.7044E-8,  -142.56
Line.F13,    79.0549,   -26.77,    79.0549,  -146.77,    79.0549,    93.23,          0,     0.00, 1.76455E-8,    36.16,    79.0555,   153.23,    79.0555,    33.23,    79.0555,   -86.77,          0,     0.00,  1.7606E-8,  -143.77
Line.F14,    2.32323,   -26.70,    2.32323,  -146.70,    2.32323,    93.30,          0,     0.00, 4.77305E-10,    37.02,    2.32501,   153.21,    2.32501,    33.21,    2.32501,   -86.79,          0,     0.00,  4.765E-10,  -146.13
Line.F15,    75.6564,   -26.77,    75.6564,  -146.77,    75.6564,    93.23,          0,     0.00, 1.74811E-8,    38.51,    75.6565,   153.23,    75.6565,    33.23,    75.6565,   -86.77,          0,     0.00, 1.71015E-8,  -142.95
Line.F16,    75.6565,   -26.77,    75.6565,  -146.77,    75.6565,    93.23,          0,     0.00, 1.72179E-8,    36.75,     75.657,   153.23,     75.657,    33.23,     75.657,   -86.77,          0,     0.00, 1.71627E-8,  -143.41
Line.F18,    72.7361,   -26.76,    72.7361,  -146.76,    72.7361,    93.24,          0,     0.00, 1.66611E-8,    37.34,    72.7366,   153.23,    72.7366,    33.23,    72.7366,   -86.77,          0,     0.00, 1.66839E-8,  -142.91
Line.F19,    69.8277,   -26.76,    69.8277,  -146.76,    69.8277,    93.24,          0,     0.00, 1.59887E-8,    37.77,    69.8283,   153.23,    69.8283,    33.23,    69.8283,   -86.77,          0,     0.00, 1.60149E-8,  -142.66
Line.F20,    69.8283,   -26.77,    69.8283,  -146.77,    69.8283,    93.23,          0,     0.00, 1.58711E-8,    37.44,    69.8288,   153.23,    69.8288,    33.23,    69.8288,   -86.77,          0,     0.00, 1.58796E-8,  -142.65
Line.F21,    66.6473,   -26.77,    66.6473,  -146.77,    66.6473,    93.23,          0,     0.00, 1.49772E-8,    39.89,    66.6476,   153.23,    66.6476,    33.23,    66.6476,   -86.77,          0,     0.00, 1.49707E-8,  -140.38
Line.F22,     3.1815,   -26.66,     3.1815,  -146.66,     3.1815,    93.34,          0,     0.00, 7.19989E-10,    14.04,    3.18157,   153.34,    3.18157,    33.34,    3.18157,   -86.66,          0,     0.00, 1.04935E-9,   160.56
Line.F23,    2.32699,   -26.73,    2.32699,  -146.73,    2.32699,    93.27,          0,     0.00, 4.45218E-10,    43.34,     2.3277,   153.24,     2.3277,    33.24,     2.3277,   -86.76,          0,     0.00, 5.02914E-10,  -134.85
Line.F24, 0.00160585,    89.50, 0.00160585,   -30.50, 0.00160585,  -150.50,          0,     0.00, 1.46652E-11,    82.87, 1.71603E-11,  -122.01, 7.49989E-12,   104.04, 2.91038E-11,    90.00,          0,     0.00, 2.44043E-11,   116.57
Line.F25,    66.6476,   -26.77,    66.6476,  -146.77,    66.6476,    93.23,          0,     0.00, 1.33051E-8,    42.70,    66.6477,   153.23,    66.6477,    33.23,    66.6477,   -86.77,          0,     0.00,  1.3809E-8,  -135.26
Line.F26,   0.320085,   -26.39,   0.320085,  -146.39,   0.320085,    93.61,          0,     0.00, 2.68324E-10,  -167.47,   0.320155,   153.59,   0.320155,    33.59,   0.320155,   -86.41,          0,     0.00, 5.82077E-10,   -90.00
Line.F27, 0.000160557,    89.50, 0.000160557,   -30.50, 0.000160557,  -150.50,          0,     0.00, 9.75738E-10,  -162.65, 4.70187E-10,   -21.80, 3.50457E-10,    94.76,          0,     0.00,          0,     0.00, 4.43296E-10,    23.20
Line.F28,    40.5237,   -26.78,    40.5237,  -146.78,    40.5237,    93.22,          0,     0.00, 7.50523E-9,    29.25,    40.5237,   153.22,    40.5237,    33.22,    40.5237,   -86.78,          0,     0.00, 7.83131E-9,  -149.15
Line.F29,    25.8039,   -26.76,    25.8039,  -146.76,    25.8039,    93.24,          0,     0.00, 5.08464E-9,    39.66,    25.8044,   153.24,    25.8044,    33.24,    25.8044,   -86.76,          0,     0.00, 5.13122E-9,  -140.35
Line.F30,    25.8044,   -26.76,    25.8044,  -146.76,    25.8044,    93.24,          0,     0.00, 5.20352E-9,    40.66,    25.8047,   153.24,    25.8047,    33.24,    25.8047,   -86.76,          0,     0.00, 5.09114E-9,  -140.19
Line.F31,    24.7376,   -26.78,    24.7376,  -146.78,    24.7376,    93.22,          0,     0.00, 5.05557E-9,    40.80,     24.738,   153.22,     24.738,    33.22,     24.738,   -86.78,          0,     0.00, 5.04607E-9,  -139.33
Line.F32,    24.2044,   -26.79,    24.2044,  -146.79,    24.2044,    93.21,          0,     0.00, 4.70457E-9,    40.04,    24.2046,   153.21,    24.2046,    33.21,    24.2046,   -86.79,          0,     0.00, 4.63762E-9,  -140.67
Line.F33,    22.5238,   -26.81,    22.5238,  -146.81,    22.5238,    93.19,          0,     0.00, 4.02812E-9,    37.37,    22.5239,   153.19,    22.5239,    33.19,    22.5239,   -86.81,          0,     0.00, 4.55779E-9,  -143.57
Line.F34,    18.6246,   -26.78,    18.6246,  -146.78,    18.6246,    93.22,          0,     0.00, 3.37984E-9,    39.58,    18.6247,   153.21,    18.6247,    33.21,    18.6247,   -86.79,          0,     0.00, 3.55654E-9,  -138.48
Line.F35,    14.7253,   -26.74,    14.7253,  -146.74,    14.7253,    93.26,          0,     0.00, 2.77266E-9,    37.98,    14.7265,   153.25,    14.7265,    33.25,    14.7265,   -86.75,          0,     0.00, 2.76245E-9,  -142.05
Line.F36,    13.8715,   -26.77,    13.8715,  -146.77,    13.8715,    93.23,          0,     0.00, 2.58316E-9,    37.58,    13.8727,   153.22,    13.8727,    33.22,    13.8727,   -86.78,          0,     0.00, 2.58677E-9,  -142.49
Line.F37,    13.8727,   -26.78,    13.8727,  -146.78,    13.8727,    93.22,          0,     0.00,  2.5968E-9,    36.74,     13.874,   153.21,     13.874,    33.21,     13.874,   -86.79,          0,     0.00, 2.58889E-9,  -142.62
Line.F38,    35.4574,   -26.79,    35.4574,  -146.79,    35.4574,    93.21,          0,     0.00, 6.99678E-9,    37.32,    35.4581,   153.21,    35.4581,    33.21,    35.4581,   -86.79,          0,     0.00, 7.00546E-9,  -142.73
Line.F39,    35.4581,   -26.79,    35.4581,  -146.79,    35.4581,    93.21,          0,     0.00,    6.95E-9,    36.94,    35.4585,   153.21,    35.4585,    33.21,    35.4585,   -86.79,          0,     0.00, 7.15666E-9,  -143.29
Line.F40,    34.7741,   -26.80,    34.7741,  -146.80,    34.7741,    93.20,          0,     0.00, 6.89769E-9,    36.58,    34.7748,   153.20,    34.7748,    33.20,    34.7748,   -86.80,          0,     0.00, 6.93841E-9,  -143.37
Line.F41,    28.9465,   -26.80,    28.9465,  -146.80,    28.9465,    93.20,          0,     0.00, 5.81967E-9,    37.51,    28.9472,   153.20,    28.9472,    33.20,    28.9472,   -86.80,          0,     0.00, 5.75723E-9,  -142.38
Line.F42,    25.0439,   -26.78,    25.0439,  -146.78,    25.0439,    93.22,          0,     0.00, 5.06752E-9,    37.71,    25.0443,   153.22,    25.0443,    33.22,    25.0443,   -86.78,          0,     0.00, 5.02732E-9,  -141.94
Line.F43,    23.7618,   -26.80,    23.7618,  -146.80,    23.7618,    93.20,          0,     0.00, 4.85502E-9,    37.69,    23.7625,   153.20,    23.7625,    33.20,    23.7625,   -86.80,          0,     0.00, 4.74589E-9,  -142.29
Line.F44,    17.9322,   -26.80,    17.9322,  -146.80,    17.9322,    93.20,          0,     0.00, 2.68008E-9,    34.38,    17.9322,   153.20,    17.9322,    33.20,    17.9322,   -86.80,          0,     0.00, 3.02974E-9,  -148.75
Line.F45,    8.74936,   -26.79,    8.74936,  -146.79,    8.74936,    93.21,          0,     0.00, 1.87073E-9,    33.26,    8.74992,   153.20,    8.74992,    33.20,    8.74992,   -86.80,          0,     0.00, 1.84368E-9,  -145.37
Line.F46,    3.90164,   -26.88,    3.90164,  -146.88,    3.90164,    93.12,          0,     0.00, 7.69611E-10,    33.58,    3.90307,   153.08,    3.90307,    33.08,    3.90307,   -86.92,          0,     0.00, 7.46285E-10,  -145.23
Line.F47,    3.90307,   -26.92,    3.90307,  -146.92,    3.90307,    93.08,          0,     0.00, 8.0024E-10,    32.75,    3.90449,   153.04,    3.90449,    33.04,    3.90449,   -86.96,          0,     0.00, 7.68661E-10,  -147.02
Line.F48,    36.6253,   -26.77,    36.6253,  -146.77,    36.6253,    93.23,          0,     0.00, 6.98787E-9,    39.74,     36.626,   153.23,     36.626,    33.23,     36.626,   -86.77,          0,     0.00,   6.987E-9,  -139.94
Line.F49,    7.30016,   -26.86,    7.30016,  -146.86,    7.30016,    93.14,          0,     0.00, 1.53119E-9,    34.11,    7.30079,   153.13,    7.30079,    33.13,    7.30079,   -86.87,          0,     0.00,  1.4705E-9,  -144.97
Line.F50,     3.8965,   -26.87,     3.8965,  -146.87,     3.8965,    93.13,          0,     0.00, 7.98277E-10,    32.53,    3.89757,   153.10,    3.89757,    33.10,    3.89757,   -86.90,          0,     0.00, 7.79037E-10,  -147.20
Line.F51, 0.00401291,    89.50, 0.00401291,   -30.50, 0.00401291,  -150.50,          0,     0.00, 8.18545E-12,     0.00, 1.15043E-11,    71.57, 1.70879E-11,   154.80, 2.18279E-11,   -90.00,          0,     0.00, 1.23705E-11,  -162.90
Line.F52,    29.3259,   -26.75,    29.3259,  -146.75,    29.3259,    93.25,          0,     0.00, 5.46567E-9,    38.73,    29.3267,   153.25,    29.3267,    33.25,    29.3267,   -86.75,          0,     0.00, 5.48959E-9,  -141.08
Line.F53,    28.4716,   -26.76,    28.4716,  -146.76,    28.4716,    93.24,          0,     0.00, 5.29271E-9,    40.46,    28.4721,   153.24,    28.4721,    33.24,    28.4721,   -86.76,          0,     0.00, 5.30493E-9,  -139.45
Line.F54,    2.98946,   -26.38,    2.98946,  -146.38,    2.98946,    93.62,          0,     0.00, 5.49157E-10,   115.72,    2.99016,   153.59,    2.99016,    33.59,    2.99016,   -86.41,          0,     0.00, 5.10177E-10,   -62.16
Line.F55,    1.49434,   -26.35,    1.49434,  -146.35,    1.49434,    93.65,          0,     0.00, 3.90469E-10,   -26.57,    1.49441,   153.65,    1.49441,    33.65,    1.49441,   -86.35,          0,     0.00, 4.1159E-10,  -135.00
Line.F56, 0.00320966,    89.50, 0.00320966,   -30.50, 0.00320966,  -150.50,          0,     0.00, 3.98624E-11,   124.78, 1.95911E-11,   -68.20, 2.99995E-11,   -14.04, 1.62695E-11,  -116.57,          0,     0.00, 4.94819E-11,   -53.97
Line.F57,    25.4827,   -26.81,    25.4827,  -146.81,    25.4827,    93.19,          0,     0.00,  5.0704E-9,    37.68,    25.4832,   153.19,    25.4832,    33.19,    25.4832,   -86.81,          0,     0.00, 4.96512E-9,  -143.07
Line.F58,    21.5827,   -26.78,    21.5827,  -146.78,    21.5827,    93.22,          0,     0.00, 4.36706E-9,    37.09,    21.5835,   153.21,    21.5835,    33.21,    21.5835,   -86.79,          0,     0.00, 4.35397E-9,  -143.37
Transformer.T24,    2.89595,   -26.76,    2.89595,  -146.76,    2.89595,    93.24, 5.65607E-10,  -146.87, 2.00972E-14,   -45.00,    76.7601,   153.24,    76.7601,    33.24,    76.7601,   -86.76, 1.49931E-8,    33.13, 6.4311E-13,    45.00
Transformer.T25,    3.88367,   -26.92,    3.88367,  -146.92,    3.88367,    93.08, 7.58395E-10,  -147.04, 2.00972E-14,   -45.00,    102.941,   153.08,    102.941,    33.08,    102.941,   -86.92, 2.01028E-8,    32.96, 6.4311E-13,    45.00
Transformer.T26,    3.88671,   -26.92,    3.88671,  -146.92,    3.88671,    93.08, 7.59055E-10,  -147.05, 4.01944E-14,   -45.00,    103.021,   153.08,    103.021,    33.08,    103.021,   -86.92, 2.01192E-8,    32.95, 6.4311E-13,    45.00
Transformer.T27,    2.90325,   -26.78,    2.90325,  -146.78,    2.90325,    93.22, 5.66983E-10,  -146.91, 2.84217E-14,     0.00,    76.9534,   153.22,    76.9534,    33.22,    76.9534,   -86.78,  1.5029E-8,    33.10, 9.09495E-13,    90.00
...